simulation_outputs/ieee9_progress_dynamic_3.txt

IEEE 9 BUS CASE - 3G - 3L


The Saved Case in file C:\Users\aryan\Documents\documents_general\python_files\eld895_simulation_psse\simulation_inputs\ieee9_cnv.sav was saved on FRI, DEC 10 2021  18:25

The following option settings are changed to the settings contained in the Saved Case File:

** BASE FREQUENCY option setting set to 60.0000

The Snapshot at TIME = -0.02 in file C:\Users\aryan\Documents\documents_general\python_files\eld895_simulation_psse\simulation_inputs\ieee9_snp3.snp was saved on FRI, DEC 10 2021  18:27

NUMBER OF ELEMENTS RESTORED:
  CONS STATES   VARS  ICONS CHANNELS
   166     92     72    144     84

** LINES PER PAGE for FILE OUTPUT set to 10000000

Model "IEESGO" at bus 1 [BUS1 16.500] machine "1

Model "IEESGO" at bus 1 [BUS1 16.500] machine "1 " added

TURBINE GOVERNOR MODEL CONNECTION TABLES UPDATED

NEXT AVAILABLE ADDRESSES ARE:
   CON  STATE    VAR   ICON
   178     98     74    145

Model "IEESGO" at bus 2 [BUS2 18.000] machine "1

Model "IEESGO" at bus 2 [BUS2 18.000] machine "1 " added

TURBINE GOVERNOR MODEL CONNECTION TABLES UPDATED

NEXT AVAILABLE ADDRESSES ARE:
   CON  STATE    VAR   ICON
   189    103     75    145

Model "IEESGO" at bus 3 [BUS3 13.800] machine "1

Model "IEESGO" at bus 3 [BUS3 13.800] machine "1 " added

TURBINE GOVERNOR MODEL CONNECTION TABLES UPDATED

NEXT AVAILABLE ADDRESSES ARE:
   CON  STATE    VAR   ICON
   200    108     76    145

CHANNEL   85 WITH IDENTIFIER "PMEC     1[BUS1        16.500]1" ADDED

CHANNEL   86 WITH IDENTIFIER "PMEC     2[BUS2        18.000]1" ADDED

CHANNEL   87 WITH IDENTIFIER "PMEC     3[BUS3        13.800]1" ADDED

9 diagonal and 12 off-diagonal elements

    PTI INTERACTIVE POWER SYSTEM SIMULATOR--PSS(R)E     SAT, MAY 21 2022  21:45
IEEE 9 BUS CASE - 3G - 3L


INITIAL CONDITION LOAD FLOW USED 1 ITERATIONS

----------------------------- MACHINE INITIAL CONDITIONS -----------------------------
  BUS#-SCT X-- NAME --X BASKV ID  ETERM   EFD    POWER    VARS   P.F.  ANGLE   ID     IQ
     1     BUS1        16.500 1  1.0400 2.1474   71.64   27.05 0.9356   3.42 0.1156 0.2585
     2     BUS2        18.000 1  1.0250 2.3234  163.00    6.65 0.9992  34.17 0.2349 0.4565
     3     BUS3        13.800 1  1.0250 2.0664   85.00  -10.86 0.9919  20.10 0.0423 0.2956

INITIAL CONDITIONS CHECK O.K.

Channel output file is "simulation_outputs/ieee9_outfile_3.out"

Channel output file is "simulation_outputs/ieee9_outfile_3.out"

   TIME X- VALUE --X X--------- IDENTIFIER ---------X X- VALUE --X X--------- IDENTIFIER ---------X
-0.0200  0.71642     POWR     1[BUS1        16.500]1    1.6300     POWR     2[BUS2        18.000]1
    3    0.85000     POWR     3[BUS3        13.800]1    1.2500     PLOD     5[BUS5        230.00]1
    5    0.90001     PLOD     6[BUS6        230.00]1    1.0000     PLOD     8[BUS8        230.00]1
    7     0.0000     FREQ      1 [BUS1        16.500]   0.0000     FREQ      2 [BUS2        18.000]
    9     0.0000     FREQ      3 [BUS3        13.800]   0.0000     FREQ      4 [BUS4        230.00]
   11     0.0000     FREQ      5 [BUS5        230.00]   0.0000     FREQ      6 [BUS6        230.00]
   13     0.0000     FREQ      7 [BUS7        230.00]   0.0000     FREQ      8 [BUS8        230.00]
   15     0.0000     FREQ      9 [BUS9        230.00]   1.0400     VOLT      1 [BUS1        16.500]
   17     1.0250     VOLT      2 [BUS2        18.000]   1.0250     VOLT      3 [BUS3        13.800]
   19     1.0258     VOLT      4 [BUS4        230.00]  0.99563     VOLT      5 [BUS5        230.00]
   21     1.0127     VOLT      6 [BUS6        230.00]   1.0258     VOLT      7 [BUS7        230.00]
   23     1.0159     VOLT      8 [BUS8        230.00]   1.0324     VOLT      9 [BUS9        230.00]
   25     76.577     MVA       1 TO      4 CKT 'T1'     163.14     MVA       2 TO      7 CKT 'T2'
   27     85.691     MVA       3 TO      9 CKT 'T3'     75.531     MVA       4 TO      1 CKT 'T1'
   29     46.904     MVA       4 TO      5 CKT '1 '     30.722     MVA       4 TO      6 CKT '1 '
   31     56.139     MVA       5 TO      4 CKT '1 '     85.075     MVA       5 TO      7 CKT '1 '
   33     34.731     MVA       6 TO      4 CKT '1 '     60.966     MVA       6 TO      9 CKT '1 '
   35     163.26     MVA       7 TO      2 CKT 'T2'     87.024     MVA       7 TO      5 CKT '1 '
   37     76.384     MVA       7 TO      8 CKT '1 '     76.656     MVA       8 TO      7 CKT '1 '
   39     34.218     MVA       8 TO      9 CKT '1 '     86.306     MVA       9 TO      3 CKT 'T3'
   41     63.446     MVA       9 TO      6 CKT '1 '     24.384     MVA       9 TO      8 CKT '1 '
   43    0.71642     POWR     1[BUS1        16.500]1    1.6300     POWR     2[BUS2        18.000]1
   45    0.85000     POWR     3[BUS3        13.800]1    1.2500     PLOD     5[BUS5        230.00]1
   47    0.90001     PLOD     6[BUS6        230.00]1    1.0000     PLOD     8[BUS8        230.00]1
   49     0.0000     FREQ      1 [BUS1        16.500]   0.0000     FREQ      2 [BUS2        18.000]
   51     0.0000     FREQ      3 [BUS3        13.800]   0.0000     FREQ      4 [BUS4        230.00]
   53     0.0000     FREQ      5 [BUS5        230.00]   0.0000     FREQ      6 [BUS6        230.00]
   55     0.0000     FREQ      7 [BUS7        230.00]   0.0000     FREQ      8 [BUS8        230.00]
   57     0.0000     FREQ      9 [BUS9        230.00]   1.0400     VOLT      1 [BUS1        16.500]
   59     1.0250     VOLT      2 [BUS2        18.000]   1.0250     VOLT      3 [BUS3        13.800]
   61     1.0258     VOLT      4 [BUS4        230.00]  0.99563     VOLT      5 [BUS5        230.00]
   63     1.0127     VOLT      6 [BUS6        230.00]   1.0258     VOLT      7 [BUS7        230.00]
   65     1.0159     VOLT      8 [BUS8        230.00]   1.0324     VOLT      9 [BUS9        230.00]
   67     76.577     MVA       1 TO      4 CKT 'T1'     163.14     MVA       2 TO      7 CKT 'T2'
   69     85.691     MVA       3 TO      9 CKT 'T3'     75.531     MVA       4 TO      1 CKT 'T1'
   71     46.904     MVA       4 TO      5 CKT '1 '     30.722     MVA       4 TO      6 CKT '1 '
   73     56.139     MVA       5 TO      4 CKT '1 '     85.075     MVA       5 TO      7 CKT '1 '
   75     34.731     MVA       6 TO      4 CKT '1 '     60.966     MVA       6 TO      9 CKT '1 '
   77     163.26     MVA       7 TO      2 CKT 'T2'     87.024     MVA       7 TO      5 CKT '1 '
   79     76.384     MVA       7 TO      8 CKT '1 '     76.656     MVA       8 TO      7 CKT '1 '
   81     34.218     MVA       8 TO      9 CKT '1 '     86.306     MVA       9 TO      3 CKT 'T3'
   83     63.446     MVA       9 TO      6 CKT '1 '     24.384     MVA       9 TO      8 CKT '1 '
   85    0.27555     PMEC     1[BUS1        16.500]1   0.52583     PMEC     2[BUS2        18.000]1
   87    0.30358     PMEC     3[BUS3        13.800]1

-0.0100  0.71642       1.6300      0.85000       1.2500      0.90001       1.0000
    7    3.09932E-10   0.0000     -1.97633E-09   0.0000       0.0000      4.94082E-10
   13     0.0000     -4.32322E-10 -1.23520E-09   1.0400       1.0250       1.0250
   19     1.0258      0.99563       1.0127       1.0258       1.0159       1.0324
   25     76.577       163.14       85.691       75.531       46.904       30.722
   31     56.139       85.075       34.731       60.966       163.26       87.024
   37     76.384       76.656       34.218       86.306       63.446       24.384
   43    0.71642       1.6300      0.85000       1.2500      0.90001       1.0000
   49    3.09932E-10   0.0000     -1.97633E-09   0.0000       0.0000      4.94082E-10
   55     0.0000     -4.32322E-10 -1.23520E-09   1.0400       1.0250       1.0250
   61     1.0258      0.99563       1.0127       1.0258       1.0159       1.0324
   67     76.577       163.14       85.691       75.531       46.904       30.722
   73     56.139       85.075       34.731       60.966       163.26       87.024
   79     76.384       76.656       34.218       86.306       63.446       24.384
   85    0.27555      0.52583      0.30358

 0.0000  0.71642       1.6300      0.85000       1.2500      0.90001       1.0000
    7    2.32448E-10   0.0000     -1.48225E-09   0.0000       0.0000      3.70561E-10
   13     0.0000     -3.24241E-10 -9.26404E-10   1.0400       1.0250       1.0250
   19     1.0258      0.99563       1.0127       1.0258       1.0159       1.0324
   25     76.577       163.14       85.691       75.531       46.904       30.722
   31     56.139       85.075       34.731       60.966       163.26       87.024
   37     76.384       76.656       34.218       86.306       63.446       24.384
   43    0.71642       1.6300      0.85000       1.2500      0.90001       1.0000
   49    2.32448E-10   0.0000     -1.48225E-09   0.0000       0.0000      3.70561E-10
   55     0.0000     -3.24241E-10 -9.26404E-10   1.0400       1.0250       1.0250
   61     1.0258      0.99563       1.0127       1.0258       1.0159       1.0324
   67     76.577       163.14       85.691       75.531       46.904       30.722
   73     56.139       85.075       34.731       60.966       163.26       87.024
   79     76.384       76.656       34.218       86.306       63.446       24.384
   85    0.27555      0.52583      0.30358

 0.0100  0.71642       1.6300      0.85000       1.2500      0.90001       1.0000
    7    1.74336E-10   0.0000     -1.11168E-09   0.0000       0.0000      2.77921E-10
   13     0.0000     -2.43181E-10 -6.94803E-10   1.0400       1.0250       1.0250
   19     1.0258      0.99563       1.0127       1.0258       1.0159       1.0324
   25     76.577       163.14       85.691       75.531       46.904       30.722
   31     56.139       85.075       34.731       60.966       163.26       87.024
   37     76.384       76.656       34.218       86.306       63.446       24.384
   43    0.71642       1.6300      0.85000       1.2500      0.90001       1.0000
   49    1.74336E-10   0.0000     -1.11168E-09   0.0000       0.0000      2.77921E-10
   55     0.0000     -2.43181E-10 -6.94803E-10   1.0400       1.0250       1.0250
   61     1.0258      0.99563       1.0127       1.0258       1.0159       1.0324
   67     76.577       163.14       85.691       75.531       46.904       30.722
   73     56.139       85.075       34.731       60.966       163.26       87.024
   79     76.384       76.656       34.218       86.306       63.446       24.384
   85    0.27555      0.52583      0.30358

 0.0200  0.71642       1.6300      0.85000       1.2500      0.90001       1.0000
    7    1.30752E-10   0.0000     -8.33763E-10   0.0000       0.0000      2.08441E-10
   13     0.0000     -1.82386E-10 -5.21102E-10   1.0400       1.0250       1.0250
   19     1.0258      0.99563       1.0127       1.0258       1.0159       1.0324
   25     76.577       163.14       85.691       75.531       46.904       30.722
   31     56.139       85.075       34.731       60.966       163.26       87.024
   37     76.384       76.656       34.218       86.306       63.446       24.384
   43    0.71642       1.6300      0.85000       1.2500      0.90001       1.0000
   49    1.30752E-10   0.0000     -8.33763E-10   0.0000       0.0000      2.08441E-10
   55     0.0000     -1.82386E-10 -5.21102E-10   1.0400       1.0250       1.0250
   61     1.0258      0.99563       1.0127       1.0258       1.0159       1.0324
   67     76.577       163.14       85.691       75.531       46.904       30.722
   73     56.139       85.075       34.731       60.966       163.26       87.024
   79     76.384       76.656       34.218       86.306       63.446       24.384
   85    0.27555      0.52583      0.30358

   TIME X- VALUE --X X--------- IDENTIFIER ---------X X- VALUE --X X--------- IDENTIFIER ---------X
 0.0300  0.71642     POWR     1[BUS1        16.500]1    1.6300     POWR     2[BUS2        18.000]1
    3    0.85000     POWR     3[BUS3        13.800]1    1.2500     PLOD     5[BUS5        230.00]1
    5    0.90001     PLOD     6[BUS6        230.00]1    1.0000     PLOD     8[BUS8        230.00]1
    7    9.80640E-11 FREQ      1 [BUS1        16.500]   0.0000     FREQ      2 [BUS2        18.000]
    9   -6.25323E-10 FREQ      3 [BUS3        13.800]   0.0000     FREQ      4 [BUS4        230.00]
   11     0.0000     FREQ      5 [BUS5        230.00]  1.56331E-10 FREQ      6 [BUS6        230.00]
   13     0.0000     FREQ      7 [BUS7        230.00] -1.36789E-10 FREQ      8 [BUS8        230.00]
   15   -3.90827E-10 FREQ      9 [BUS9        230.00]   1.0400     VOLT      1 [BUS1        16.500]
   17     1.0250     VOLT      2 [BUS2        18.000]   1.0250     VOLT      3 [BUS3        13.800]
   19     1.0258     VOLT      4 [BUS4        230.00]  0.99563     VOLT      5 [BUS5        230.00]
   21     1.0127     VOLT      6 [BUS6        230.00]   1.0258     VOLT      7 [BUS7        230.00]
   23     1.0159     VOLT      8 [BUS8        230.00]   1.0324     VOLT      9 [BUS9        230.00]
   25     76.577     MVA       1 TO      4 CKT 'T1'     163.14     MVA       2 TO      7 CKT 'T2'
   27     85.691     MVA       3 TO      9 CKT 'T3'     75.531     MVA       4 TO      1 CKT 'T1'
   29     46.904     MVA       4 TO      5 CKT '1 '     30.722     MVA       4 TO      6 CKT '1 '
   31     56.139     MVA       5 TO      4 CKT '1 '     85.075     MVA       5 TO      7 CKT '1 '
   33     34.731     MVA       6 TO      4 CKT '1 '     60.966     MVA       6 TO      9 CKT '1 '
   35     163.26     MVA       7 TO      2 CKT 'T2'     87.024     MVA       7 TO      5 CKT '1 '
   37     76.384     MVA       7 TO      8 CKT '1 '     76.656     MVA       8 TO      7 CKT '1 '
   39     34.218     MVA       8 TO      9 CKT '1 '     86.306     MVA       9 TO      3 CKT 'T3'
   41     63.446     MVA       9 TO      6 CKT '1 '     24.384     MVA       9 TO      8 CKT '1 '
   43    0.71642     POWR     1[BUS1        16.500]1    1.6300     POWR     2[BUS2        18.000]1
   45    0.85000     POWR     3[BUS3        13.800]1    1.2500     PLOD     5[BUS5        230.00]1
   47    0.90001     PLOD     6[BUS6        230.00]1    1.0000     PLOD     8[BUS8        230.00]1
   49    9.80640E-11 FREQ      1 [BUS1        16.500]   0.0000     FREQ      2 [BUS2        18.000]
   51   -6.25323E-10 FREQ      3 [BUS3        13.800]   0.0000     FREQ      4 [BUS4        230.00]
   53     0.0000     FREQ      5 [BUS5        230.00]  1.56331E-10 FREQ      6 [BUS6        230.00]
   55     0.0000     FREQ      7 [BUS7        230.00] -1.36789E-10 FREQ      8 [BUS8        230.00]
   57   -3.90827E-10 FREQ      9 [BUS9        230.00]   1.0400     VOLT      1 [BUS1        16.500]
   59     1.0250     VOLT      2 [BUS2        18.000]   1.0250     VOLT      3 [BUS3        13.800]
   61     1.0258     VOLT      4 [BUS4        230.00]  0.99563     VOLT      5 [BUS5        230.00]
   63     1.0127     VOLT      6 [BUS6        230.00]   1.0258     VOLT      7 [BUS7        230.00]
   65     1.0159     VOLT      8 [BUS8        230.00]   1.0324     VOLT      9 [BUS9        230.00]
   67     76.577     MVA       1 TO      4 CKT 'T1'     163.14     MVA       2 TO      7 CKT 'T2'
   69     85.691     MVA       3 TO      9 CKT 'T3'     75.531     MVA       4 TO      1 CKT 'T1'
   71     46.904     MVA       4 TO      5 CKT '1 '     30.722     MVA       4 TO      6 CKT '1 '
   73     56.139     MVA       5 TO      4 CKT '1 '     85.075     MVA       5 TO      7 CKT '1 '
   75     34.731     MVA       6 TO      4 CKT '1 '     60.966     MVA       6 TO      9 CKT '1 '
   77     163.26     MVA       7 TO      2 CKT 'T2'     87.024     MVA       7 TO      5 CKT '1 '
   79     76.384     MVA       7 TO      8 CKT '1 '     76.656     MVA       8 TO      7 CKT '1 '
   81     34.218     MVA       8 TO      9 CKT '1 '     86.306     MVA       9 TO      3 CKT 'T3'
   83     63.446     MVA       9 TO      6 CKT '1 '     24.384     MVA       9 TO      8 CKT '1 '
   85    0.27555     PMEC     1[BUS1        16.500]1   0.52583     PMEC     2[BUS2        18.000]1
   87    0.30358     PMEC     3[BUS3        13.800]1

 0.0400  0.71642       1.6300      0.85000       1.2500      0.90001       1.0000
    7    7.35480E-11   0.0000     -4.68992E-10   0.0000       0.0000      1.17248E-10
   13     0.0000     -1.02592E-10 -2.93120E-10   1.0400       1.0250       1.0250
   19     1.0258      0.99563       1.0127       1.0258       1.0159       1.0324
   25     76.577       163.14       85.691       75.531       46.904       30.722
   31     56.139       85.075       34.731       60.966       163.26       87.024
   37     76.384       76.656       34.218       86.306       63.446       24.384
   43    0.71642       1.6300      0.85000       1.2500      0.90001       1.0000
   49    7.35480E-11   0.0000     -4.68992E-10   0.0000       0.0000      1.17248E-10
   55     0.0000     -1.02592E-10 -2.93120E-10   1.0400       1.0250       1.0250
   61     1.0258      0.99563       1.0127       1.0258       1.0159       1.0324
   67     76.577       163.14       85.691       75.531       46.904       30.722
   73     56.139       85.075       34.731       60.966       163.26       87.024
   79     76.384       76.656       34.218       86.306       63.446       24.384
   85    0.27555      0.52583      0.30358

 0.0500  0.71642       1.6300      0.85000       1.2500      0.90001       1.0000
    7    5.51610E-11   0.0000     -3.51744E-10   0.0000       0.0000      8.79360E-11
   13     0.0000     -7.69440E-11 -2.19840E-10   1.0400       1.0250       1.0250
   19     1.0258      0.99563       1.0127       1.0258       1.0159       1.0324
   25     76.577       163.14       85.691       75.531       46.904       30.722
   31     56.139       85.075       34.731       60.966       163.26       87.024
   37     76.384       76.656       34.218       86.306       63.446       24.384
   43    0.71642       1.6300      0.85000       1.2500      0.90001       1.0000
   49    5.51610E-11   0.0000     -3.51744E-10   0.0000       0.0000      8.79360E-11
   55     0.0000     -7.69440E-11 -2.19840E-10   1.0400       1.0250       1.0250
   61     1.0258      0.99563       1.0127       1.0258       1.0159       1.0324
   67     76.577       163.14       85.691       75.531       46.904       30.722
   73     56.139       85.075       34.731       60.966       163.26       87.024
   79     76.384       76.656       34.218       86.306       63.446       24.384
   85    0.27555      0.52583      0.30358

 0.0600  0.71642       1.6300      0.85000       1.2500      0.90001       1.0000
    7    4.13707E-11   0.0000     -2.63808E-10   0.0000       0.0000      6.59520E-11
   13     0.0000     -5.77080E-11 -1.64880E-10   1.0400       1.0250       1.0250
   19     1.0258      0.99563       1.0127       1.0258       1.0159       1.0324
   25     76.577       163.14       85.691       75.531       46.904       30.722
   31     56.139       85.075       34.731       60.966       163.26       87.024
   37     76.384       76.656       34.218       86.306       63.446       24.384
   43    0.71642       1.6300      0.85000       1.2500      0.90001       1.0000
   49    4.13707E-11   0.0000     -2.63808E-10   0.0000       0.0000      6.59520E-11
   55     0.0000     -5.77080E-11 -1.64880E-10   1.0400       1.0250       1.0250
   61     1.0258      0.99563       1.0127       1.0258       1.0159       1.0324
   67     76.577       163.14       85.691       75.531       46.904       30.722
   73     56.139       85.075       34.731       60.966       163.26       87.024
   79     76.384       76.656       34.218       86.306       63.446       24.384
   85    0.27555      0.52583      0.30358

 0.0700  0.71642       1.6300      0.85000       1.2500      0.90001       1.0000
    7    3.10281E-11   0.0000     -1.97856E-10   0.0000       0.0000      4.94640E-11
   13     0.0000     -4.32810E-11 -1.23660E-10   1.0400       1.0250       1.0250
   19     1.0258      0.99563       1.0127       1.0258       1.0159       1.0324
   25     76.577       163.14       85.691       75.531       46.904       30.722
   31     56.139       85.075       34.731       60.966       163.26       87.024
   37     76.384       76.656       34.218       86.306       63.446       24.384
   43    0.71642       1.6300      0.85000       1.2500      0.90001       1.0000
   49    3.10281E-11   0.0000     -1.97856E-10   0.0000       0.0000      4.94640E-11
   55     0.0000     -4.32810E-11 -1.23660E-10   1.0400       1.0250       1.0250
   61     1.0258      0.99563       1.0127       1.0258       1.0159       1.0324
   67     76.577       163.14       85.691       75.531       46.904       30.722
   73     56.139       85.075       34.731       60.966       163.26       87.024
   79     76.384       76.656       34.218       86.306       63.446       24.384
   85    0.27555      0.52583      0.30358

   TIME X- VALUE --X X--------- IDENTIFIER ---------X X- VALUE --X X--------- IDENTIFIER ---------X
 0.0800  0.71642     POWR     1[BUS1        16.500]1    1.6300     POWR     2[BUS2        18.000]1
    3    0.85000     POWR     3[BUS3        13.800]1    1.2500     PLOD     5[BUS5        230.00]1
    5    0.90001     PLOD     6[BUS6        230.00]1    1.0000     PLOD     8[BUS8        230.00]1
    7    2.32710E-11 FREQ      1 [BUS1        16.500]   0.0000     FREQ      2 [BUS2        18.000]
    9   -1.48392E-10 FREQ      3 [BUS3        13.800]   0.0000     FREQ      4 [BUS4        230.00]
   11     0.0000     FREQ      5 [BUS5        230.00]  3.70980E-11 FREQ      6 [BUS6        230.00]
   13     0.0000     FREQ      7 [BUS7        230.00] -3.24607E-11 FREQ      8 [BUS8        230.00]
   15   -9.27450E-11 FREQ      9 [BUS9        230.00]   1.0400     VOLT      1 [BUS1        16.500]
   17     1.0250     VOLT      2 [BUS2        18.000]   1.0250     VOLT      3 [BUS3        13.800]
   19     1.0258     VOLT      4 [BUS4        230.00]  0.99563     VOLT      5 [BUS5        230.00]
   21     1.0127     VOLT      6 [BUS6        230.00]   1.0258     VOLT      7 [BUS7        230.00]
   23     1.0159     VOLT      8 [BUS8        230.00]   1.0324     VOLT      9 [BUS9        230.00]
   25     76.577     MVA       1 TO      4 CKT 'T1'     163.14     MVA       2 TO      7 CKT 'T2'
   27     85.691     MVA       3 TO      9 CKT 'T3'     75.531     MVA       4 TO      1 CKT 'T1'
   29     46.904     MVA       4 TO      5 CKT '1 '     30.722     MVA       4 TO      6 CKT '1 '
   31     56.139     MVA       5 TO      4 CKT '1 '     85.075     MVA       5 TO      7 CKT '1 '
   33     34.731     MVA       6 TO      4 CKT '1 '     60.966     MVA       6 TO      9 CKT '1 '
   35     163.26     MVA       7 TO      2 CKT 'T2'     87.024     MVA       7 TO      5 CKT '1 '
   37     76.384     MVA       7 TO      8 CKT '1 '     76.656     MVA       8 TO      7 CKT '1 '
   39     34.218     MVA       8 TO      9 CKT '1 '     86.306     MVA       9 TO      3 CKT 'T3'
   41     63.446     MVA       9 TO      6 CKT '1 '     24.384     MVA       9 TO      8 CKT '1 '
   43    0.71642     POWR     1[BUS1        16.500]1    1.6300     POWR     2[BUS2        18.000]1
   45    0.85000     POWR     3[BUS3        13.800]1    1.2500     PLOD     5[BUS5        230.00]1
   47    0.90001     PLOD     6[BUS6        230.00]1    1.0000     PLOD     8[BUS8        230.00]1
   49    2.32710E-11 FREQ      1 [BUS1        16.500]   0.0000     FREQ      2 [BUS2        18.000]
   51   -1.48392E-10 FREQ      3 [BUS3        13.800]   0.0000     FREQ      4 [BUS4        230.00]
   53     0.0000     FREQ      5 [BUS5        230.00]  3.70980E-11 FREQ      6 [BUS6        230.00]
   55     0.0000     FREQ      7 [BUS7        230.00] -3.24607E-11 FREQ      8 [BUS8        230.00]
   57   -9.27450E-11 FREQ      9 [BUS9        230.00]   1.0400     VOLT      1 [BUS1        16.500]
   59     1.0250     VOLT      2 [BUS2        18.000]   1.0250     VOLT      3 [BUS3        13.800]
   61     1.0258     VOLT      4 [BUS4        230.00]  0.99563     VOLT      5 [BUS5        230.00]
   63     1.0127     VOLT      6 [BUS6        230.00]   1.0258     VOLT      7 [BUS7        230.00]
   65     1.0159     VOLT      8 [BUS8        230.00]   1.0324     VOLT      9 [BUS9        230.00]
   67     76.577     MVA       1 TO      4 CKT 'T1'     163.14     MVA       2 TO      7 CKT 'T2'
   69     85.691     MVA       3 TO      9 CKT 'T3'     75.531     MVA       4 TO      1 CKT 'T1'
   71     46.904     MVA       4 TO      5 CKT '1 '     30.722     MVA       4 TO      6 CKT '1 '
   73     56.139     MVA       5 TO      4 CKT '1 '     85.075     MVA       5 TO      7 CKT '1 '
   75     34.731     MVA       6 TO      4 CKT '1 '     60.966     MVA       6 TO      9 CKT '1 '
   77     163.26     MVA       7 TO      2 CKT 'T2'     87.024     MVA       7 TO      5 CKT '1 '
   79     76.384     MVA       7 TO      8 CKT '1 '     76.656     MVA       8 TO      7 CKT '1 '
   81     34.218     MVA       8 TO      9 CKT '1 '     86.306     MVA       9 TO      3 CKT 'T3'
   83     63.446     MVA       9 TO      6 CKT '1 '     24.384     MVA       9 TO      8 CKT '1 '
   85    0.27555     PMEC     1[BUS1        16.500]1   0.52583     PMEC     2[BUS2        18.000]1
   87    0.30358     PMEC     3[BUS3        13.800]1

 0.0900  0.71642       1.6300      0.85000       1.2500      0.90001       1.0000
    7    1.74533E-11   0.0000     -1.11294E-10   0.0000       0.0000      2.78235E-11
   13     0.0000     -2.43456E-11 -6.95587E-11   1.0400       1.0250       1.0250
   19     1.0258      0.99563       1.0127       1.0258       1.0159       1.0324
   25     76.577       163.14       85.691       75.531       46.904       30.722
   31     56.139       85.075       34.731       60.966       163.26       87.024
   37     76.384       76.656       34.218       86.306       63.446       24.384
   43    0.71642       1.6300      0.85000       1.2500      0.90001       1.0000
   49    1.74533E-11   0.0000     -1.11294E-10   0.0000       0.0000      2.78235E-11
   55     0.0000     -2.43456E-11 -6.95587E-11   1.0400       1.0250       1.0250
   61     1.0258      0.99563       1.0127       1.0258       1.0159       1.0324
   67     76.577       163.14       85.691       75.531       46.904       30.722
   73     56.139       85.075       34.731       60.966       163.26       87.024
   79     76.384       76.656       34.218       86.306       63.446       24.384
   85    0.27555      0.52583      0.30358

 0.1000  0.71642       1.6300      0.85000       1.2500      0.90001       1.0000
    7    1.30900E-11   0.0000     -8.34705E-11   0.0000       0.0000      2.08676E-11
   13     0.0000     -1.82592E-11 -5.21691E-11   1.0400       1.0250       1.0250
   19     1.0258      0.99563       1.0127       1.0258       1.0159       1.0324
   25     76.577       163.14       85.691       75.531       46.904       30.722
   31     56.139       85.075       34.731       60.966       163.26       87.024
   37     76.384       76.656       34.218       86.306       63.446       24.384
   43    0.71642       1.6300      0.85000       1.2500      0.90001       1.0000
   49    1.30900E-11   0.0000     -8.34705E-11   0.0000       0.0000      2.08676E-11
   55     0.0000     -1.82592E-11 -5.21691E-11   1.0400       1.0250       1.0250
   61     1.0258      0.99563       1.0127       1.0258       1.0159       1.0324
   67     76.577       163.14       85.691       75.531       46.904       30.722
   73     56.139       85.075       34.731       60.966       163.26       87.024
   79     76.384       76.656       34.218       86.306       63.446       24.384
   85    0.27555      0.52583      0.30358

 0.1100  0.71642       1.6300      0.85000       1.2500      0.90001       1.0000
    7    9.81747E-12   0.0000     -6.26029E-11   0.0000       0.0000      1.56507E-11
   13     0.0000     -1.36944E-11 -3.91268E-11   1.0400       1.0250       1.0250
   19     1.0258      0.99563       1.0127       1.0258       1.0159       1.0324
   25     76.577       163.14       85.691       75.531       46.904       30.722
   31     56.139       85.075       34.731       60.966       163.26       87.024
   37     76.384       76.656       34.218       86.306       63.446       24.384
   43    0.71642       1.6300      0.85000       1.2500      0.90001       1.0000
   49    9.81747E-12   0.0000     -6.26029E-11   0.0000       0.0000      1.56507E-11
   55     0.0000     -1.36944E-11 -3.91268E-11   1.0400       1.0250       1.0250
   61     1.0258      0.99563       1.0127       1.0258       1.0159       1.0324
   67     76.577       163.14       85.691       75.531       46.904       30.722
   73     56.139       85.075       34.731       60.966       163.26       87.024
   79     76.384       76.656       34.218       86.306       63.446       24.384
   85    0.27555      0.52583      0.30358

 0.1200  0.71642       1.6300      0.85000       1.2500      0.90001       1.0000
    7    7.36310E-12   0.0000     -4.69522E-11   0.0000       0.0000      1.17380E-11
   13     0.0000     -1.02708E-11 -2.93451E-11   1.0400       1.0250       1.0250
   19     1.0258      0.99563       1.0127       1.0258       1.0159       1.0324
   25     76.577       163.14       85.691       75.531       46.904       30.722
   31     56.139       85.075       34.731       60.966       163.26       87.024
   37     76.384       76.656       34.218       86.306       63.446       24.384
   43    0.71642       1.6300      0.85000       1.2500      0.90001       1.0000
   49    7.36310E-12   0.0000     -4.69522E-11   0.0000       0.0000      1.17380E-11
   55     0.0000     -1.02708E-11 -2.93451E-11   1.0400       1.0250       1.0250
   61     1.0258      0.99563       1.0127       1.0258       1.0159       1.0324
   67     76.577       163.14       85.691       75.531       46.904       30.722
   73     56.139       85.075       34.731       60.966       163.26       87.024
   79     76.384       76.656       34.218       86.306       63.446       24.384
   85    0.27555      0.52583      0.30358

   TIME X- VALUE --X X--------- IDENTIFIER ---------X X- VALUE --X X--------- IDENTIFIER ---------X
 0.1300  0.71642     POWR     1[BUS1        16.500]1    1.6300     POWR     2[BUS2        18.000]1
    3    0.85000     POWR     3[BUS3        13.800]1    1.2500     PLOD     5[BUS5        230.00]1
    5    0.90001     PLOD     6[BUS6        230.00]1    1.0000     PLOD     8[BUS8        230.00]1
    7    5.52233E-12 FREQ      1 [BUS1        16.500]   0.0000     FREQ      2 [BUS2        18.000]
    9   -3.52141E-11 FREQ      3 [BUS3        13.800]   0.0000     FREQ      4 [BUS4        230.00]
   11     0.0000     FREQ      5 [BUS5        230.00]  8.80353E-12 FREQ      6 [BUS6        230.00]
   13     0.0000     FREQ      7 [BUS7        230.00] -7.70309E-12 FREQ      8 [BUS8        230.00]
   15   -2.20088E-11 FREQ      9 [BUS9        230.00]   1.0400     VOLT      1 [BUS1        16.500]
   17     1.0250     VOLT      2 [BUS2        18.000]   1.0250     VOLT      3 [BUS3        13.800]
   19     1.0258     VOLT      4 [BUS4        230.00]  0.99563     VOLT      5 [BUS5        230.00]
   21     1.0127     VOLT      6 [BUS6        230.00]   1.0258     VOLT      7 [BUS7        230.00]
   23     1.0159     VOLT      8 [BUS8        230.00]   1.0324     VOLT      9 [BUS9        230.00]
   25     76.577     MVA       1 TO      4 CKT 'T1'     163.14     MVA       2 TO      7 CKT 'T2'
   27     85.691     MVA       3 TO      9 CKT 'T3'     75.531     MVA       4 TO      1 CKT 'T1'
   29     46.904     MVA       4 TO      5 CKT '1 '     30.722     MVA       4 TO      6 CKT '1 '
   31     56.139     MVA       5 TO      4 CKT '1 '     85.075     MVA       5 TO      7 CKT '1 '
   33     34.731     MVA       6 TO      4 CKT '1 '     60.966     MVA       6 TO      9 CKT '1 '
   35     163.26     MVA       7 TO      2 CKT 'T2'     87.024     MVA       7 TO      5 CKT '1 '
   37     76.384     MVA       7 TO      8 CKT '1 '     76.656     MVA       8 TO      7 CKT '1 '
   39     34.218     MVA       8 TO      9 CKT '1 '     86.306     MVA       9 TO      3 CKT 'T3'
   41     63.446     MVA       9 TO      6 CKT '1 '     24.384     MVA       9 TO      8 CKT '1 '
   43    0.71642     POWR     1[BUS1        16.500]1    1.6300     POWR     2[BUS2        18.000]1
   45    0.85000     POWR     3[BUS3        13.800]1    1.2500     PLOD     5[BUS5        230.00]1
   47    0.90001     PLOD     6[BUS6        230.00]1    1.0000     PLOD     8[BUS8        230.00]1
   49    5.52233E-12 FREQ      1 [BUS1        16.500]   0.0000     FREQ      2 [BUS2        18.000]
   51   -3.52141E-11 FREQ      3 [BUS3        13.800]   0.0000     FREQ      4 [BUS4        230.00]
   53     0.0000     FREQ      5 [BUS5        230.00]  8.80353E-12 FREQ      6 [BUS6        230.00]
   55     0.0000     FREQ      7 [BUS7        230.00] -7.70309E-12 FREQ      8 [BUS8        230.00]
   57   -2.20088E-11 FREQ      9 [BUS9        230.00]   1.0400     VOLT      1 [BUS1        16.500]
   59     1.0250     VOLT      2 [BUS2        18.000]   1.0250     VOLT      3 [BUS3        13.800]
   61     1.0258     VOLT      4 [BUS4        230.00]  0.99563     VOLT      5 [BUS5        230.00]
   63     1.0127     VOLT      6 [BUS6        230.00]   1.0258     VOLT      7 [BUS7        230.00]
   65     1.0159     VOLT      8 [BUS8        230.00]   1.0324     VOLT      9 [BUS9        230.00]
   67     76.577     MVA       1 TO      4 CKT 'T1'     163.14     MVA       2 TO      7 CKT 'T2'
   69     85.691     MVA       3 TO      9 CKT 'T3'     75.531     MVA       4 TO      1 CKT 'T1'
   71     46.904     MVA       4 TO      5 CKT '1 '     30.722     MVA       4 TO      6 CKT '1 '
   73     56.139     MVA       5 TO      4 CKT '1 '     85.075     MVA       5 TO      7 CKT '1 '
   75     34.731     MVA       6 TO      4 CKT '1 '     60.966     MVA       6 TO      9 CKT '1 '
   77     163.26     MVA       7 TO      2 CKT 'T2'     87.024     MVA       7 TO      5 CKT '1 '
   79     76.384     MVA       7 TO      8 CKT '1 '     76.656     MVA       8 TO      7 CKT '1 '
   81     34.218     MVA       8 TO      9 CKT '1 '     86.306     MVA       9 TO      3 CKT 'T3'
   83     63.446     MVA       9 TO      6 CKT '1 '     24.384     MVA       9 TO      8 CKT '1 '
   85    0.27555     PMEC     1[BUS1        16.500]1   0.52583     PMEC     2[BUS2        18.000]1
   87    0.30358     PMEC     3[BUS3        13.800]1

 0.1400  0.71642       1.6300      0.85000       1.2500      0.90001       1.0000
    7    4.14175E-12   0.0000     -2.64106E-11   0.0000       0.0000      6.60265E-12
   13     0.0000     -5.77731E-12 -1.65066E-11   1.0400       1.0250       1.0250
   19     1.0258      0.99563       1.0127       1.0258       1.0159       1.0324
   25     76.577       163.14       85.691       75.531       46.904       30.722
   31     56.139       85.075       34.731       60.966       163.26       87.024
   37     76.384       76.656       34.218       86.306       63.446       24.384
   43    0.71642       1.6300      0.85000       1.2500      0.90001       1.0000
   49    4.14175E-12   0.0000     -2.64106E-11   0.0000       0.0000      6.60265E-12
   55     0.0000     -5.77731E-12 -1.65066E-11   1.0400       1.0250       1.0250
   61     1.0258      0.99563       1.0127       1.0258       1.0159       1.0324
   67     76.577       163.14       85.691       75.531       46.904       30.722
   73     56.139       85.075       34.731       60.966       163.26       87.024
   79     76.384       76.656       34.218       86.306       63.446       24.384
   85    0.27555      0.52583      0.30358

 0.1500  0.71642       1.6300      0.85000       1.2500      0.90001       1.0000
    7    3.10631E-12   0.0000     -1.98079E-11   0.0000       0.0000      4.95199E-12
   13     0.0000     -4.33299E-12 -1.23800E-11   1.0400       1.0250       1.0250
   19     1.0258      0.99563       1.0127       1.0258       1.0159       1.0324
   25     76.577       163.14       85.691       75.531       46.904       30.722
   31     56.139       85.075       34.731       60.966       163.26       87.024
   37     76.384       76.656       34.218       86.306       63.446       24.384
   43    0.71642       1.6300      0.85000       1.2500      0.90001       1.0000
   49    3.10631E-12   0.0000     -1.98079E-11   0.0000       0.0000      4.95199E-12
   55     0.0000     -4.33299E-12 -1.23800E-11   1.0400       1.0250       1.0250
   61     1.0258      0.99563       1.0127       1.0258       1.0159       1.0324
   67     76.577       163.14       85.691       75.531       46.904       30.722
   73     56.139       85.075       34.731       60.966       163.26       87.024
   79     76.384       76.656       34.218       86.306       63.446       24.384
   85    0.27555      0.52583      0.30358

 0.1600  0.71642       1.6300      0.85000       1.2500      0.90001       1.0000
    7   -3.77784E-10   0.0000     -1.48560E-11 -2.47041E-10   0.0000     -4.90368E-10
   13   -4.94082E-10 -1.26770E-10 -2.56326E-10   1.0400       1.0250       1.0250
   19     1.0258      0.99563       1.0127       1.0258       1.0159       1.0324
   25     76.577       163.14       85.691       75.531       46.904       30.722
   31     56.139       85.075       34.731       60.966       163.26       87.024
   37     76.384       76.656       34.218       86.306       63.446       24.384
   43    0.71642       1.6300      0.85000       1.2500      0.90001       1.0000
   49   -3.77784E-10   0.0000     -1.48560E-11 -2.47041E-10   0.0000     -4.90368E-10
   55   -4.94082E-10 -1.26770E-10 -2.56326E-10   1.0400       1.0250       1.0250
   61     1.0258      0.99563       1.0127       1.0258       1.0159       1.0324
   67     76.577       163.14       85.691       75.531       46.904       30.722
   73     56.139       85.075       34.731       60.966       163.26       87.024
   79     76.384       76.656       34.218       86.306       63.446       24.384
   85    0.27555      0.52583      0.30358

 0.1700  0.71642       1.6300      0.85000       1.2500      0.90001       1.0000
    7   -2.82472E-10   0.0000     -1.11420E-11 -1.85281E-10   0.0000     -3.67776E-10
   13   -3.70561E-10 -9.50777E-11 -1.92244E-10   1.0400       1.0250       1.0250
   19     1.0258      0.99563       1.0127       1.0258       1.0159       1.0324
   25     76.577       163.14       85.691       75.531       46.904       30.722
   31     56.139       85.075       34.731       60.966       163.26       87.024
   37     76.384       76.656       34.218       86.306       63.446       24.384
   43    0.71642       1.6300      0.85000       1.2500      0.90001       1.0000
   49   -2.82472E-10   0.0000     -1.11420E-11 -1.85281E-10   0.0000     -3.67776E-10
   55   -3.70561E-10 -9.50777E-11 -1.92244E-10   1.0400       1.0250       1.0250
   61     1.0258      0.99563       1.0127       1.0258       1.0159       1.0324
   67     76.577       163.14       85.691       75.531       46.904       30.722
   73     56.139       85.075       34.731       60.966       163.26       87.024
   79     76.384       76.656       34.218       86.306       63.446       24.384
   85    0.27555      0.52583      0.30358

   TIME X- VALUE --X X--------- IDENTIFIER ---------X X- VALUE --X X--------- IDENTIFIER ---------X
 0.1800  0.71642     POWR     1[BUS1        16.500]1    1.6300     POWR     2[BUS2        18.000]1
    3    0.85000     POWR     3[BUS3        13.800]1    1.2500     PLOD     5[BUS5        230.00]1
    5    0.90001     PLOD     6[BUS6        230.00]1    1.0000     PLOD     8[BUS8        230.00]1
    7   -7.18683E-10 FREQ      1 [BUS1        16.500]   0.0000     FREQ      2 [BUS2        18.000]
    9   -8.35647E-12 FREQ      3 [BUS3        13.800] -6.33043E-10 FREQ      4 [BUS4        230.00]
   11   -4.94082E-10 FREQ      5 [BUS5        230.00] -2.75832E-10 FREQ      6 [BUS6        230.00]
   13   -2.77921E-10 FREQ      7 [BUS7        230.00] -1.94829E-10 FREQ      8 [BUS8        230.00]
   15   -1.44183E-10 FREQ      9 [BUS9        230.00]   1.0400     VOLT      1 [BUS1        16.500]
   17     1.0250     VOLT      2 [BUS2        18.000]   1.0250     VOLT      3 [BUS3        13.800]
   19     1.0258     VOLT      4 [BUS4        230.00]  0.99563     VOLT      5 [BUS5        230.00]
   21     1.0127     VOLT      6 [BUS6        230.00]   1.0258     VOLT      7 [BUS7        230.00]
   23     1.0159     VOLT      8 [BUS8        230.00]   1.0324     VOLT      9 [BUS9        230.00]
   25     76.577     MVA       1 TO      4 CKT 'T1'     163.14     MVA       2 TO      7 CKT 'T2'
   27     85.691     MVA       3 TO      9 CKT 'T3'     75.531     MVA       4 TO      1 CKT 'T1'
   29     46.904     MVA       4 TO      5 CKT '1 '     30.722     MVA       4 TO      6 CKT '1 '
   31     56.139     MVA       5 TO      4 CKT '1 '     85.075     MVA       5 TO      7 CKT '1 '
   33     34.731     MVA       6 TO      4 CKT '1 '     60.966     MVA       6 TO      9 CKT '1 '
   35     163.26     MVA       7 TO      2 CKT 'T2'     87.024     MVA       7 TO      5 CKT '1 '
   37     76.384     MVA       7 TO      8 CKT '1 '     76.656     MVA       8 TO      7 CKT '1 '
   39     34.218     MVA       8 TO      9 CKT '1 '     86.306     MVA       9 TO      3 CKT 'T3'
   41     63.446     MVA       9 TO      6 CKT '1 '     24.384     MVA       9 TO      8 CKT '1 '
   43    0.71642     POWR     1[BUS1        16.500]1    1.6300     POWR     2[BUS2        18.000]1
   45    0.85000     POWR     3[BUS3        13.800]1    1.2500     PLOD     5[BUS5        230.00]1
   47    0.90001     PLOD     6[BUS6        230.00]1    1.0000     PLOD     8[BUS8        230.00]1
   49   -7.18683E-10 FREQ      1 [BUS1        16.500]   0.0000     FREQ      2 [BUS2        18.000]
   51   -8.35647E-12 FREQ      3 [BUS3        13.800] -6.33043E-10 FREQ      4 [BUS4        230.00]
   53   -4.94082E-10 FREQ      5 [BUS5        230.00] -2.75832E-10 FREQ      6 [BUS6        230.00]
   55   -2.77921E-10 FREQ      7 [BUS7        230.00] -1.94829E-10 FREQ      8 [BUS8        230.00]
   57   -1.44183E-10 FREQ      9 [BUS9        230.00]   1.0400     VOLT      1 [BUS1        16.500]
   59     1.0250     VOLT      2 [BUS2        18.000]   1.0250     VOLT      3 [BUS3        13.800]
   61     1.0258     VOLT      4 [BUS4        230.00]  0.99563     VOLT      5 [BUS5        230.00]
   63     1.0127     VOLT      6 [BUS6        230.00]   1.0258     VOLT      7 [BUS7        230.00]
   65     1.0159     VOLT      8 [BUS8        230.00]   1.0324     VOLT      9 [BUS9        230.00]
   67     76.577     MVA       1 TO      4 CKT 'T1'     163.14     MVA       2 TO      7 CKT 'T2'
   69     85.691     MVA       3 TO      9 CKT 'T3'     75.531     MVA       4 TO      1 CKT 'T1'
   71     46.904     MVA       4 TO      5 CKT '1 '     30.722     MVA       4 TO      6 CKT '1 '
   73     56.139     MVA       5 TO      4 CKT '1 '     85.075     MVA       5 TO      7 CKT '1 '
   75     34.731     MVA       6 TO      4 CKT '1 '     60.966     MVA       6 TO      9 CKT '1 '
   77     163.26     MVA       7 TO      2 CKT 'T2'     87.024     MVA       7 TO      5 CKT '1 '
   79     76.384     MVA       7 TO      8 CKT '1 '     76.656     MVA       8 TO      7 CKT '1 '
   81     34.218     MVA       8 TO      9 CKT '1 '     86.306     MVA       9 TO      3 CKT 'T3'
   83     63.446     MVA       9 TO      6 CKT '1 '     24.384     MVA       9 TO      8 CKT '1 '
   85    0.27555     PMEC     1[BUS1        16.500]1   0.52583     PMEC     2[BUS2        18.000]1
   87    0.30358     PMEC     3[BUS3        13.800]1

 0.1900  0.71642       1.6300      0.85000       1.2500      0.90001       1.0000
    7   -5.37858E-10   0.0000     -6.26736E-12 -4.74782E-10 -3.70561E-10 -2.06874E-10
   13   -2.08441E-10 -1.46122E-10 -1.08138E-10   1.0400       1.0250       1.0250
   19     1.0258      0.99563       1.0127       1.0258       1.0159       1.0324
   25     76.577       163.14       85.691       75.531       46.904       30.722
   31     56.139       85.075       34.731       60.966       163.26       87.024
   37     76.384       76.656       34.218       86.306       63.446       24.384
   43    0.71642       1.6300      0.85000       1.2500      0.90001       1.0000
   49   -5.37858E-10   0.0000     -6.26736E-12 -4.74782E-10 -3.70561E-10 -2.06874E-10
   55   -2.08441E-10 -1.46122E-10 -1.08138E-10   1.0400       1.0250       1.0250
   61     1.0258      0.99563       1.0127       1.0258       1.0159       1.0324
   67     76.577       163.14       85.691       75.531       46.904       30.722
   73     56.139       85.075       34.731       60.966       163.26       87.024
   79     76.384       76.656       34.218       86.306       63.446       24.384
   85    0.27555      0.52583      0.30358

 0.2000  0.71642       1.6300      0.85000       1.2500      0.90001       1.0000
    7   -7.83522E-10   0.0000     -4.98783E-10 -6.03127E-10 -2.77921E-10 -6.49238E-10
   13   -1.56331E-10 -2.33112E-10 -3.28144E-10   1.0400       1.0250       1.0250
   19     1.0258      0.99563       1.0127       1.0258       1.0159       1.0324
   25     76.577       163.14       85.691       75.531       46.904       30.722
   31     56.139       85.075       34.731       60.966       163.26       87.024
   37     76.384       76.656       34.218       86.306       63.446       24.384
   43    0.71642       1.6300      0.85000       1.2500      0.90001       1.0000
   49   -7.83522E-10   0.0000     -4.98783E-10 -6.03127E-10 -2.77921E-10 -6.49238E-10
   55   -1.56331E-10 -2.33112E-10 -3.28144E-10   1.0400       1.0250       1.0250
   61     1.0258      0.99563       1.0127       1.0258       1.0159       1.0324
   67     76.577       163.14       85.691       75.531       46.904       30.722
   73     56.139       85.075       34.731       60.966       163.26       87.024
   79     76.384       76.656       34.218       86.306       63.446       24.384
   85    0.27555      0.52583      0.30358

 0.2100  0.71642       1.6300      0.85000       1.2500      0.90001       1.0000
    7   -9.66889E-10   0.0000     -3.74087E-10 -6.99387E-10 -7.02523E-10 -4.86928E-10
   13   -1.17248E-10 -2.36594E-10 -2.46108E-10   1.0400       1.0250       1.0250
   19     1.0258      0.99563       1.0127       1.0258       1.0159       1.0324
   25     76.577       163.14       85.691       75.531       46.904       30.722
   31     56.139       85.075       34.731       60.966       163.26       87.024
   37     76.384       76.656       34.218       86.306       63.446       24.384
   43    0.71642       1.6300      0.85000       1.2500      0.90001       1.0000
   49   -9.66889E-10   0.0000     -3.74087E-10 -6.99387E-10 -7.02523E-10 -4.86928E-10
   55   -1.17248E-10 -2.36594E-10 -2.46108E-10   1.0400       1.0250       1.0250
   61     1.0258      0.99563       1.0127       1.0258       1.0159       1.0324
   67     76.577       163.14       85.691       75.531       46.904       30.722
   73     56.139       85.075       34.731       60.966       163.26       87.024
   79     76.384       76.656       34.218       86.306       63.446       24.384
   85    0.27555      0.52583      0.30358

 0.2200  0.71642       1.6300      0.85000       1.2500      0.90001       1.0000
    7   -7.24312E-10   0.0000     -2.80565E-10 -5.24540E-10 -5.26892E-10 -3.65196E-10
   13   -8.79360E-11 -1.77446E-10 -1.84581E-10   1.0400       1.0250       1.0250
   19     1.0258      0.99563       1.0127       1.0258       1.0159       1.0324
   25     76.577       163.14       85.691       75.531       46.904       30.722
   31     56.139       85.075       34.731       60.966       163.26       87.024
   37     76.384       76.656       34.218       86.306       63.446       24.384
   43    0.71642       1.6300      0.85000       1.2500      0.90001       1.0000
   49   -7.24312E-10   0.0000     -2.80565E-10 -5.24540E-10 -5.26892E-10 -3.65196E-10
   55   -8.79360E-11 -1.77446E-10 -1.84581E-10   1.0400       1.0250       1.0250
   61     1.0258      0.99563       1.0127       1.0258       1.0159       1.0324
   67     76.577       163.14       85.691       75.531       46.904       30.722
   73     56.139       85.075       34.731       60.966       163.26       87.024
   79     76.384       76.656       34.218       86.306       63.446       24.384
   85    0.27555      0.52583      0.30358

   TIME X- VALUE --X X--------- IDENTIFIER ---------X X- VALUE --X X--------- IDENTIFIER ---------X
 0.2300  0.71642     POWR     1[BUS1        16.500]1    1.6300     POWR     2[BUS2        18.000]1
    3    0.85000     POWR     3[BUS3        13.800]1    1.2500     PLOD     5[BUS5        230.00]1
    5    0.90001     PLOD     6[BUS6        230.00]1    1.0000     PLOD     8[BUS8        230.00]1
    7   -9.23358E-10 FREQ      1 [BUS1        16.500]   0.0000     FREQ      2 [BUS2        18.000]
    9   -2.10424E-10 FREQ      3 [BUS3        13.800] -8.87487E-10 FREQ      4 [BUS4        230.00]
   11   -3.95169E-10 FREQ      5 [BUS5        230.00] -7.67979E-10 FREQ      6 [BUS6        230.00]
   13   -6.59520E-11 FREQ      7 [BUS7        230.00] -2.56605E-10 FREQ      8 [BUS8        230.00]
   15   -1.38436E-10 FREQ      9 [BUS9        230.00]   1.0400     VOLT      1 [BUS1        16.500]
   17     1.0250     VOLT      2 [BUS2        18.000]   1.0250     VOLT      3 [BUS3        13.800]
   19     1.0258     VOLT      4 [BUS4        230.00]  0.99563     VOLT      5 [BUS5        230.00]
   21     1.0127     VOLT      6 [BUS6        230.00]   1.0258     VOLT      7 [BUS7        230.00]
   23     1.0159     VOLT      8 [BUS8        230.00]   1.0324     VOLT      9 [BUS9        230.00]
   25     76.577     MVA       1 TO      4 CKT 'T1'     163.14     MVA       2 TO      7 CKT 'T2'
   27     85.691     MVA       3 TO      9 CKT 'T3'     75.531     MVA       4 TO      1 CKT 'T1'
   29     46.904     MVA       4 TO      5 CKT '1 '     30.722     MVA       4 TO      6 CKT '1 '
   31     56.139     MVA       5 TO      4 CKT '1 '     85.075     MVA       5 TO      7 CKT '1 '
   33     34.731     MVA       6 TO      4 CKT '1 '     60.966     MVA       6 TO      9 CKT '1 '
   35     163.26     MVA       7 TO      2 CKT 'T2'     87.024     MVA       7 TO      5 CKT '1 '
   37     76.384     MVA       7 TO      8 CKT '1 '     76.656     MVA       8 TO      7 CKT '1 '
   39     34.218     MVA       8 TO      9 CKT '1 '     86.306     MVA       9 TO      3 CKT 'T3'
   41     63.446     MVA       9 TO      6 CKT '1 '     24.384     MVA       9 TO      8 CKT '1 '
   43    0.71642     POWR     1[BUS1        16.500]1    1.6300     POWR     2[BUS2        18.000]1
   45    0.85000     POWR     3[BUS3        13.800]1    1.2500     PLOD     5[BUS5        230.00]1
   47    0.90001     PLOD     6[BUS6        230.00]1    1.0000     PLOD     8[BUS8        230.00]1
   49   -9.23358E-10 FREQ      1 [BUS1        16.500]   0.0000     FREQ      2 [BUS2        18.000]
   51   -2.10424E-10 FREQ      3 [BUS3        13.800] -8.87487E-10 FREQ      4 [BUS4        230.00]
   53   -3.95169E-10 FREQ      5 [BUS5        230.00] -7.67979E-10 FREQ      6 [BUS6        230.00]
   55   -6.59520E-11 FREQ      7 [BUS7        230.00] -2.56605E-10 FREQ      8 [BUS8        230.00]
   57   -1.38436E-10 FREQ      9 [BUS9        230.00]   1.0400     VOLT      1 [BUS1        16.500]
   59     1.0250     VOLT      2 [BUS2        18.000]   1.0250     VOLT      3 [BUS3        13.800]
   61     1.0258     VOLT      4 [BUS4        230.00]  0.99563     VOLT      5 [BUS5        230.00]
   63     1.0127     VOLT      6 [BUS6        230.00]   1.0258     VOLT      7 [BUS7        230.00]
   65     1.0159     VOLT      8 [BUS8        230.00]   1.0324     VOLT      9 [BUS9        230.00]
   67     76.577     MVA       1 TO      4 CKT 'T1'     163.14     MVA       2 TO      7 CKT 'T2'
   69     85.691     MVA       3 TO      9 CKT 'T3'     75.531     MVA       4 TO      1 CKT 'T1'
   71     46.904     MVA       4 TO      5 CKT '1 '     30.722     MVA       4 TO      6 CKT '1 '
   73     56.139     MVA       5 TO      4 CKT '1 '     85.075     MVA       5 TO      7 CKT '1 '
   75     34.731     MVA       6 TO      4 CKT '1 '     60.966     MVA       6 TO      9 CKT '1 '
   77     163.26     MVA       7 TO      2 CKT 'T2'     87.024     MVA       7 TO      5 CKT '1 '
   79     76.384     MVA       7 TO      8 CKT '1 '     76.656     MVA       8 TO      7 CKT '1 '
   81     34.218     MVA       8 TO      9 CKT '1 '     86.306     MVA       9 TO      3 CKT 'T3'
   83     63.446     MVA       9 TO      6 CKT '1 '     24.384     MVA       9 TO      8 CKT '1 '
   85    0.27555     PMEC     1[BUS1        16.500]1   0.52583     PMEC     2[BUS2        18.000]1
   87    0.30358     PMEC     3[BUS3        13.800]1

 0.2400  0.71642       1.6300      0.85000       1.2500      0.90001       1.0000
    7   -6.91653E-10   0.0000     -1.57818E-10 -6.65615E-10 -2.96377E-10 -5.75984E-10
   13   -4.94640E-11 -1.92453E-10 -1.03827E-10   1.0400       1.0250       1.0250
   19     1.0258      0.99563       1.0127       1.0258       1.0159       1.0324
   25     76.577       163.14       85.691       75.531       46.904       30.722
   31     56.139       85.075       34.731       60.966       163.26       87.024
   37     76.384       76.656       34.218       86.306       63.446       24.384
   43    0.71642       1.6300      0.85000       1.2500      0.90001       1.0000
   49   -6.91653E-10   0.0000     -1.57818E-10 -6.65615E-10 -2.96377E-10 -5.75984E-10
   55   -4.94640E-11 -1.92453E-10 -1.03827E-10   1.0400       1.0250       1.0250
   61     1.0258      0.99563       1.0127       1.0258       1.0159       1.0324
   67     76.577       163.14       85.691       75.531       46.904       30.722
   73     56.139       85.075       34.731       60.966       163.26       87.024
   79     76.384       76.656       34.218       86.306       63.446       24.384
   85    0.27555      0.52583      0.30358

 0.2500  0.71642       1.6300      0.85000       1.2500      0.90001       1.0000
    7   -5.18750E-10   0.0000     -1.18363E-10 -4.99211E-10 -2.22283E-10 -4.31988E-10
   13   -3.70980E-11 -1.44340E-10 -7.78701E-11   1.0400       1.0250       1.0250
   19     1.0258      0.99563       1.0127       1.0258       1.0159       1.0324
   25     76.577       163.14       85.691       75.531       46.904       30.722
   31     56.139       85.075       34.731       60.966       163.26       87.024
   37     76.384       76.656       34.218       86.306       63.446       24.384
   43    0.71642       1.6300      0.85000       1.2500      0.90001       1.0000
   49   -5.18750E-10   0.0000     -1.18363E-10 -4.99211E-10 -2.22283E-10 -4.31988E-10
   55   -3.70980E-11 -1.44340E-10 -7.78701E-11   1.0400       1.0250       1.0250
   61     1.0258      0.99563       1.0127       1.0258       1.0159       1.0324
   67     76.577       163.14       85.691       75.531       46.904       30.722
   73     56.139       85.075       34.731       60.966       163.26       87.024
   79     76.384       76.656       34.218       86.306       63.446       24.384
   85    0.27555      0.52583      0.30358

 0.2600  0.71642       1.6300      0.85000       1.2500      0.90001       1.0000
    7   -1.24100E-09   0.0000     -8.87726E-11 -1.11553E-09 -1.15488E-09 -1.31216E-09
   13   -5.21906E-10 -4.78817E-10 -3.05444E-10   1.0400       1.0250       1.0250
   19     1.0258      0.99563       1.0127       1.0258       1.0159       1.0324
   25     76.577       163.14       85.691       75.531       46.904       30.722
   31     56.139       85.075       34.731       60.966       163.26       87.024
   37     76.384       76.656       34.218       86.306       63.446       24.384
   43    0.71642       1.6300      0.85000       1.2500      0.90001       1.0000
   49   -1.24100E-09   0.0000     -8.87726E-11 -1.11553E-09 -1.15488E-09 -1.31216E-09
   55   -5.21906E-10 -4.78817E-10 -3.05444E-10   1.0400       1.0250       1.0250
   61     1.0258      0.99563       1.0127       1.0258       1.0159       1.0324
   67     76.577       163.14       85.691       75.531       46.904       30.722
   73     56.139       85.075       34.731       60.966       163.26       87.024
   79     76.384       76.656       34.218       86.306       63.446       24.384
   85    0.27555      0.52583      0.30358

 0.2700  0.71642       1.6300      0.85000       1.2500      0.90001       1.0000
    7   -9.28386E-10   0.0000     -6.65794E-11 -8.36649E-10 -8.66157E-10 -9.84116E-10
   13   -3.91429E-10 -3.59112E-10 -2.29083E-10   1.0400       1.0250       1.0250
   19     1.0258      0.99563       1.0127       1.0258       1.0159       1.0324
   25     76.577       163.14       85.691       75.531       46.904       30.722
   31     56.139       85.075       34.731       60.966       163.26       87.024
   37     76.384       76.656       34.218       86.306       63.446       24.384
   43    0.71642       1.6300      0.85000       1.2500      0.90001       1.0000
   49   -9.28386E-10   0.0000     -6.65794E-11 -8.36649E-10 -8.66157E-10 -9.84116E-10
   55   -3.91429E-10 -3.59112E-10 -2.29083E-10   1.0400       1.0250       1.0250
   61     1.0258      0.99563       1.0127       1.0258       1.0159       1.0324
   67     76.577       163.14       85.691       75.531       46.904       30.722
   73     56.139       85.075       34.731       60.966       163.26       87.024
   79     76.384       76.656       34.218       86.306       63.446       24.384
   85    0.27555      0.52583      0.30358

   TIME X- VALUE --X X--------- IDENTIFIER ---------X X- VALUE --X X--------- IDENTIFIER ---------X
 0.2800  0.71642     POWR     1[BUS1        16.500]1    1.6300     POWR     2[BUS2        18.000]1
    3    0.85000     POWR     3[BUS3        13.800]1    1.2500     PLOD     5[BUS5        230.00]1
    5    0.90001     PLOD     6[BUS6        230.00]1    1.0000     PLOD     8[BUS8        230.00]1
    7   -1.07643E-09 FREQ      1 [BUS1        16.500]   0.0000     FREQ      2 [BUS2        18.000]
    9   -4.99346E-11 FREQ      3 [BUS3        13.800] -8.74527E-10 FREQ      4 [BUS4        230.00]
   11   -1.14370E-09 FREQ      5 [BUS5        230.00] -7.38087E-10 FREQ      6 [BUS6        230.00]
   13   -2.93572E-10 FREQ      7 [BUS7        230.00] -3.31095E-10 FREQ      8 [BUS8        230.00]
   15   -4.18853E-10 FREQ      9 [BUS9        230.00]   1.0400     VOLT      1 [BUS1        16.500]
   17     1.0250     VOLT      2 [BUS2        18.000]   1.0250     VOLT      3 [BUS3        13.800]
   19     1.0258     VOLT      4 [BUS4        230.00]  0.99563     VOLT      5 [BUS5        230.00]
   21     1.0127     VOLT      6 [BUS6        230.00]   1.0258     VOLT      7 [BUS7        230.00]
   23     1.0159     VOLT      8 [BUS8        230.00]   1.0324     VOLT      9 [BUS9        230.00]
   25     76.577     MVA       1 TO      4 CKT 'T1'     163.14     MVA       2 TO      7 CKT 'T2'
   27     85.691     MVA       3 TO      9 CKT 'T3'     75.531     MVA       4 TO      1 CKT 'T1'
   29     46.904     MVA       4 TO      5 CKT '1 '     30.722     MVA       4 TO      6 CKT '1 '
   31     56.139     MVA       5 TO      4 CKT '1 '     85.075     MVA       5 TO      7 CKT '1 '
   33     34.731     MVA       6 TO      4 CKT '1 '     60.966     MVA       6 TO      9 CKT '1 '
   35     163.26     MVA       7 TO      2 CKT 'T2'     87.024     MVA       7 TO      5 CKT '1 '
   37     76.384     MVA       7 TO      8 CKT '1 '     76.656     MVA       8 TO      7 CKT '1 '
   39     34.218     MVA       8 TO      9 CKT '1 '     86.306     MVA       9 TO      3 CKT 'T3'
   41     63.446     MVA       9 TO      6 CKT '1 '     24.384     MVA       9 TO      8 CKT '1 '
   43    0.71642     POWR     1[BUS1        16.500]1    1.6300     POWR     2[BUS2        18.000]1
...